 # hf/sto-6g pop=full opt

 CH2CHOCH3 molecule : Opt.

 0 1
 C1
 C2   1   1.35
 H3   1   1.10   2   120.0
 H4   1   1.10   2   120.0   3   180.0
 H5   2   1.10   1   120.0   3     0.0
 O6   2   1.45   1   120.0   3   180.0
 C7   6   1.45   2   110.0   1     0.0
 H8   7   1.10   6   110.0   2    60.0
 H9   7   1.10   6   110.0   8   120.0
 H10  7   1.10   6   110.0   8  -120.0

