 # hf/sto-6g pop=full opt

 CH2CHCOOH molecule : Opt.

 0 1
 C1
 C2   1   1.35
 H3   1   1.10   2   120.0
 H4   1   1.10   2   120.0   3   180.0
 H5   2   1.10   1   120.0   3     0.0
 C6   2   1.45   1   120.0   3   180.0
 O7   6   1.20   2   125.0   1   180.0
 O8   6   1.40   7   120.0   2   180.0
 H9   8   0.95   6   110.0   7     0.0

