 # hf/sto-6g pop=full opt

 CH2CHC-Ph-CH2 molecule : Opt.

 0 1
 C1
 C2   1   1.40
 C3   2   1.40   1   120.0
 C4   3   1.40   2   120.0   1     0.0
 H5   1   1.10   2   120.0   3     0.0
 H6   1   1.10   2   120.0   3   180.0
 H7   2   1.10   3   120.0   4   180.0
 H8   4   1.10   3   120.0   2     0.0
 H9   4   1.10   3   120.0   2   180.0
 C10  3   1.40   2   120.0   1   180.0
 C11  10  1.40   3   120.0   2     0.0
 C12  11  1.40  10   120.0   3   180.0
 C13  12  1.40  11   120.0  10     0.0
 C14  13  1.40  12   120.0  11     0.0
 C15  14  1.40  13   120.0  12     0.0
 H16  11  1.10  10   120.0   3     0.0
 H17  12  1.10  11   120.0  16     0.0
 H18  13  1.10  12   120.0  17     0.0
 H19  14  1.10  13   120.0  18     0.0
 H20  15  1.10  14   120.0  19     0.0

