 # hf/sto-6g pop=full opt

 CH2CHC-OCH3-CH2 molecule : Opt.

 0 1
 C1
 C2   1   1.40
 C3   2   1.40   1   120.0
 C4   3   1.40   2   120.0   1     0.0
 H5   1   1.10   2   120.0   3     0.0
 H6   1   1.10   2   120.0   3   180.0
 H7   2   1.10   3   120.0   4   180.0
 H8   4   1.10   3   120.0   2   180.0
 H9   4   1.10   3   120.0   2     0.0
 O10  3   1.40   2   110.0   1   180.0
 C11  10  1.40   3   110.0   2   180.0
 H12  11  1.10   10  110.0   3   180.0
 H13  11  1.10   10  110.0   12  120.0
 H14  11  1.10   10  110.0   12 -120.0

